<?xml version="1.0" ?><configuration>
    <input>
		<net-file value="/public2/home/wushenghao/project/TrafficSignalControl/nets/net_3x3grid/net_3x3grid.net.xml"/>
        <route-files value="/public2/home/wushenghao/project/TrafficSignalControl/nets/net_3x3grid/rou_file/c0/_32_105_49_122_46_107_149_12_102_42_138_19.rou.xml"/>
    </input>
	<time>
        <begin value="0"/>
        <end value="900"/>
		<seed value="23423"/>
    </time>
    <time-to-teleport value="-1"/> <!-- If the value is not positive, teleporting due to grid-lock is disabled.-->
</configuration>