<configuration>
  <input>
    <net-file value="net_3x3grid.net.xml"/>
	<route-files value="net_3x3grid.rou.xml"/>
  </input>
  <time>
    <begin value="0"/>
    <end value="14000"/>
    <seed value="23423"/>
  </time>
</configuration>
