<?xml version="1.0" ?><configuration>
    <input>
		<net-file value="/public2/home/wushenghao/project/TrafficSignalControl/nets/net_single3/net_single3.net.xml"/>
        <route-files value="/public2/home/wushenghao/project/TrafficSignalControl/nets/net_single3/rou_file/c0/_159_24_38_182.rou.xml"/>
    </input>
	<time>
        <begin value="0"/>
        <end value="900"/>
		<seed value="23423"/>
    </time>
    <time-to-teleport value="-1"/> <!-- If the value is not positive, teleporting due to grid-lock is disabled.-->
</configuration>