<configuration>
  <input>
    <net-file value="net_single2.net.xml"/>
	<route-files value="net_single2.rou.xml"/>
  </input>
  <time>
    <begin value="0"/>
    <end value="100000"/>
    <seed value="23423"/>
  </time>
</configuration>
